59
crest_best_TS2                                   Eopt  -1563.915365
O     0.815095    -2.302683    -0.058755
C     0.728564    -1.525295    -0.986496
N    -0.435024    -1.051998    -1.519272
H    -0.322055    -0.260004    -2.131640
C    -1.648541    -1.105184    -0.737424
C    -1.957358     0.248090    -0.140456
N    -1.013356     1.137460    -0.094171
N    -1.574301     2.361134     0.153199
C    -2.863363     2.215989     0.256437
N    -3.199872     0.846382     0.159697
C    -4.478932     0.211991     0.182687
C    -5.703953     0.890063     0.358860
C    -6.858128     0.299693    -0.170574
C    -6.873735    -0.970852    -0.710191
C    -5.749307    -1.755684    -0.513971
C    -4.579951    -1.200540    -0.000448
C    -3.692622    -2.131636     0.737180
O    -3.109759    -1.843156     1.756168
O    -3.674191    -3.378973     0.222592
H    -3.157433    -3.929587     0.829668
H    -5.785378    -2.822217    -0.669916
H    -7.775359    -1.385637    -1.135693
H    -7.781530     0.859163    -0.092582
C    -5.947104     2.046185     1.301938
H    -6.784281     1.755465     1.936626
H    -5.103574     2.225614     1.957973
H    -6.224265     2.976044     0.812280
C    -3.711632     3.439576     0.179920
H    -4.097688     3.777193     1.135553
H    -3.059694     4.216892    -0.208806
H    -4.541548     3.307670    -0.509548
H    -1.478311    -1.855603     0.026125
H    -2.477961    -1.431028    -1.363189
O     1.778673    -1.025764    -1.672656
C     3.086804    -1.391543    -1.203082
H     3.117419    -2.463715    -1.021585
H     3.752215    -1.140050    -2.024933
C     3.497185    -0.629590     0.062361
C     4.938098    -0.949710     0.402105
C     5.515012    -2.170910     0.703387
C     6.885829    -2.226014     0.954532
C     7.662112    -1.070622     0.899474
C     7.085800     0.159211     0.596715
C     5.719492     0.216552     0.347137
C     4.846005     1.348372     0.029468
C     5.128375     2.703191    -0.101291
C     4.082579     3.580979    -0.367343
C     2.776104     3.112074    -0.489826
C     2.488398     1.753379    -0.362940
C     3.530466     0.874618    -0.115106
H     1.466089     1.410236    -0.436868
H     1.970142     3.808978    -0.674929
H     4.283371     4.639201    -0.467987
H     6.139024     3.072790     0.010938
H     7.693853     1.053241     0.560283
H     8.723718    -1.130648     1.097708
H     7.349622    -3.172423     1.196699
H     4.915805    -3.070643     0.753956
H     2.819966    -0.921472     0.866577
