59
crest_best_TS1                                   Eopt  -1563.913784
O     0.947643    -1.319596     0.770194
C     0.855674    -0.357350     0.032315
N    -0.207668     0.481850    -0.023007
H    -0.102707     1.336460    -0.545401
C    -1.240392     0.443986     0.999346
C    -2.482459     1.170368     0.570816
N    -2.449457     2.466387     0.678214
N    -3.726983     2.946841     0.611908
C    -4.538774     1.938372     0.471161
N    -3.804118     0.740699     0.340325
C    -4.330970    -0.573291     0.131114
C    -3.555224    -1.750559     0.122600
C    -4.192393    -2.955758     0.443639
C    -5.557892    -3.061511     0.612219
C    -6.329354    -1.973483     0.237294
C    -5.731096    -0.755842    -0.077038
C    -6.490468     0.108685    -1.011486
O    -5.988617     0.737241    -1.914086
O    -7.828531     0.041529    -0.838854
H    -8.231994     0.530989    -1.570753
H    -7.394003    -2.073310     0.097744
H    -6.015611    -3.999771     0.888606
H    -3.573318    -3.841445     0.505781
C    -2.170971    -1.890000    -0.463357
H    -2.242351    -2.652733    -1.239860
H    -1.819567    -0.985291    -0.942837
H    -1.415160    -2.228355     0.241954
C    -5.993824     2.158298     0.716645
H    -6.058073     3.036359     1.354043
H    -6.550589     2.367672    -0.191618
H    -6.458468     1.322171     1.232251
H    -0.900321     0.973231     1.890786
H    -1.421674    -0.577706     1.293131
O     1.790278     0.010178    -0.873900
C     2.994446    -0.777212    -0.900661
H     2.735754    -1.829218    -0.810621
H     3.429910    -0.587518    -1.878217
C     3.969635    -0.373009     0.207368
C     5.232546    -1.206088     0.139472
C     5.378181    -2.579432     0.227622
C     6.654935    -3.129618     0.120089
C     7.765044    -2.310335    -0.073728
C     7.622559    -0.929214    -0.162058
C     6.350471    -0.378893    -0.055910
C     5.898414     1.013450    -0.098491
C     6.612994     2.195211    -0.256339
C     5.922346     3.402414    -0.244794
C     4.539857     3.427612    -0.074697
C     3.821358     2.243459     0.084412
C     4.502896     1.038186     0.067965
H     2.749418     2.271764     0.217061
H     4.018850     4.375146    -0.063760
H     6.463170     4.331200    -0.365367
H     7.687270     2.180893    -0.382658
H     8.489230    -0.298874    -0.309220
H     8.748238    -2.753707    -0.153922
H     6.785338    -4.200753     0.190371
H     4.520489    -3.219944     0.386061
H     3.462323    -0.513198     1.164429
