59
int2                                             Eopt  -1563.986243
O    -0.478450     1.362744     1.453919
C    -0.604063     2.161790     0.547984
N     0.425572     2.734488    -0.128560
H     0.192032     3.209485    -0.985011
C     1.756126     2.172115    -0.015342
C     1.991502     1.046628    -0.974492
N     1.665766     1.044453    -2.237388
N     2.105036    -0.148419    -2.784050
C     2.687587    -0.832482    -1.833175
N     2.636532    -0.120337    -0.658569
C     3.139625    -0.531275     0.611527
C     2.295789    -1.300792     1.420777
C     2.782628    -1.727160     2.655215
C     4.068313    -1.415637     3.072266
C     4.897516    -0.669868     2.254309
C     4.444618    -0.211470     1.016622
C     5.432672     0.576431     0.223508
O     6.617751     0.584007     0.459278
O     4.901131     1.308082    -0.775350
H     5.634956     1.763971    -1.214312
H     5.905690    -0.426898     2.552123
H     4.424187    -1.758575     4.033382
H     2.137164    -2.314880     3.293397
C     0.902933    -1.650096     0.983149
H     0.889358    -2.113012    -0.001946
H     0.445375    -2.339757     1.688847
H     0.278014    -0.759485     0.927364
C     3.317285    -2.168448    -1.962659
H     3.216192    -2.505049    -2.990639
H     4.377069    -2.132841    -1.706472
H     2.844595    -2.898072    -1.303742
H     1.891167     1.825473     1.005457
H     2.488000     2.958225    -0.198516
O    -1.785803     2.635353     0.088536
C    -2.978998     2.035803     0.621838
H    -2.717483     1.419128     1.476701
H    -3.616089     2.856064     0.945978
C    -3.689111     1.202709    -0.449622
C    -2.877543     0.020923    -0.943169
C    -1.694282     0.001617    -1.662077
C    -1.133146    -1.226503    -2.008526
C    -1.751870    -2.417737    -1.637415
C    -2.947149    -2.405774    -0.925657
C    -3.511507    -1.181728    -0.586545
C    -4.766878    -0.865188     0.097712
C    -5.751486    -1.692000     0.625673
C    -6.873031    -1.112006     1.210287
C    -7.010674     0.272939     1.265510
C    -6.023059     1.104287     0.737592
C    -4.906395     0.531436     0.155036
H    -6.139227     2.179410     0.780978
H    -7.891111     0.706592     1.719388
H    -7.648328    -1.742486     1.623927
H    -5.653117    -2.768390     0.582431
H    -3.432713    -3.333791    -0.654659
H    -1.303230    -3.362173    -1.915004
H    -0.210598    -1.243729    -2.570516
H    -1.202298     0.913756    -1.965561
H    -3.961381     1.863172    -1.276645
