59
crest_best_TS2                                   Eopt  -1563.935735
O    -1.609630    -0.223427    -3.234602
C    -1.273172    -0.164317    -2.071668
N    -0.560863     0.857296    -1.528068
H    -0.389670     1.613434    -2.170957
C    -0.485418     1.180614    -0.108091
C     0.842890     1.761329     0.288530
N     0.829214     3.016620     0.631000
N     2.110945     3.427035     0.841405
C     2.911831     2.420003     0.620178
N     2.172007     1.277687     0.278879
C     2.566590    -0.083416    -0.030692
C     1.528166    -0.992808    -0.238649
C     1.738322    -2.280761    -0.683289
C     3.020006    -2.727712    -0.930043
C     4.097681    -1.900088    -0.654225
C     3.880890    -0.586016    -0.177747
C     5.147200     0.008080     0.347507
O     5.439344     0.016618     1.516657
O     5.995117     0.405880    -0.620302
H     6.826832     0.665656    -0.192966
C     5.488257    -2.463145    -0.826012
H     5.428479    -3.518036    -1.082172
H     6.034281    -1.949743    -1.615881
H     6.077069    -2.378137     0.088373
H     3.197141    -3.729315    -1.295007
H     0.882965    -2.922772    -0.836491
H     0.519319    -0.720356    -0.046416
C     4.372526     2.684691     0.672899
H     4.865581     2.195785     1.506214
H     4.461300     3.759690     0.802234
H     4.871697     2.413321    -0.252443
H    -1.192789     1.974140     0.130055
H    -0.787997     0.319352     0.473910
O    -1.510072    -1.136951    -1.154342
C    -2.627868    -2.007336    -1.382605
H    -2.289370    -3.014626    -1.149980
H    -2.916901    -1.956122    -2.428982
C    -3.766891    -1.583512    -0.451531
C    -3.345021    -1.592961     1.005445
C    -2.875697    -2.643744     1.772161
C    -2.486848    -2.398196     3.088749
C    -2.566027    -1.113820     3.622585
C    -3.038976    -0.054063     2.855089
C    -3.430375    -0.299588     1.544127
C    -3.938845     0.604837     0.510319
C    -4.174787     1.974355     0.537301
C    -4.639053     2.595797    -0.617533
C    -4.864679     1.860655    -1.779260
C    -4.626144     0.487571    -1.807424
C    -4.165345    -0.134552    -0.661438
H    -4.782410    -0.071856    -2.719659
H    -5.219682     2.360877    -2.669506
H    -4.822808     3.661399    -0.615292
H    -3.995417     2.551346     1.434313
H    -3.095187     0.941681     3.273618
H    -2.255560    -0.939471     4.643625
H    -2.117779    -3.210291     3.699847
H    -2.804740    -3.643466     1.363128
H    -4.606823    -2.261283    -0.629469
