59
int2                                             Eopt  -1563.985977
O     0.531467    -0.789849    -3.188681
C     0.029250    -1.189366    -2.157434
N     0.650524    -2.024828    -1.283538
H     1.611446    -2.213454    -1.507106
C     0.133219    -2.465241    -0.000133
C     0.320494    -1.507702     1.136872
N    -0.586975    -1.206629     2.023250
N    -0.023566    -0.322148     2.924967
C     1.211325    -0.103445     2.554975
N     1.489620    -0.845401     1.429114
C     2.712155    -0.883424     0.698034
C     3.516112    -2.009032     0.808076
C     4.701391    -2.068184     0.090566
C     5.081921    -1.000194    -0.709326
C     4.301583     0.150494    -0.811321
C     3.092618     0.197643    -0.101794
C     2.218504     1.407827    -0.197088
O     2.606499     2.537355    -0.009211
O     0.960600     1.096891    -0.512060
H     0.408751     1.903585    -0.501526
C     4.747445     1.284765    -1.691550
H     5.626654     0.997236    -2.263890
H     3.963451     1.575492    -2.391039
H     4.986690     2.166510    -1.098972
H     6.005484    -1.054586    -1.268970
H     5.331162    -2.943802     0.160467
H     3.208464    -2.818965     1.453341
C     2.186648     0.792438     3.224163
H     3.114853     0.266785     3.451008
H     1.747249     1.150758     4.150978
H     2.436623     1.652223     2.601643
H    -0.933367    -2.654979    -0.076468
H     0.619142    -3.413300     0.234221
O    -1.216969    -0.893930    -1.740093
C    -2.041548    -0.106146    -2.611185
H    -2.567155    -0.779721    -3.288936
H    -1.416630     0.562715    -3.197305
C    -3.031855     0.666304    -1.740128
C    -3.734126    -0.224365    -0.733634
C    -4.558104    -1.312685    -0.955493
C    -5.050032    -2.016864     0.142386
C    -4.708966    -1.636837     1.439420
C    -3.876579    -0.546731     1.664603
C    -3.394859     0.161106     0.571346
C    -2.526897     1.338653     0.500783
C    -1.923539     2.088914     1.503709
C    -1.166809     3.199630     1.146284
C    -1.015109     3.560875    -0.193516
C    -1.604065     2.793288    -1.202633
C    -2.346787     1.680826    -0.848021
H    -1.467796     3.064887    -2.241438
H    -0.429830     4.432166    -0.451627
H    -0.684612     3.789664     1.913115
H    -2.018382     1.802031     2.540520
H    -3.593441    -0.270770     2.670063
H    -5.090594    -2.201661     2.278949
H    -5.698805    -2.868167    -0.013088
H    -4.817721    -1.619410    -1.960590
H    -3.741967     1.148782    -2.417315
