47
crest_best_TS2.log	Energy: -741403.8472294
O          2.32148       -1.12827        0.42779
C          2.48504        0.07999        0.25345
N          1.57235        1.02952        0.53876
H          1.79484        1.98511        0.31134
C          0.29046        0.77229        1.17544
C         -0.80799        1.42083        0.35292
N         -0.66611        2.70406        0.18217
N         -1.83492        3.22456       -0.29470
C         -2.68963        2.25172       -0.42108
N         -2.08598        1.02373       -0.07702
C         -2.71924       -0.25767       -0.29622
C         -3.86086       -0.27807       -1.10368
C         -4.67648       -1.39277       -1.21727
C         -4.37484       -2.55104       -0.52360
C         -3.18138       -2.59476        0.17426
C         -2.32425       -1.49581        0.25084
C         -0.95636       -1.88400        0.69980
O         -0.67831       -2.30197        1.79948
O         -0.09909       -1.78291       -0.31878
H          0.84106       -1.78862        0.01351
H         -2.85577       -3.51444        0.63924
H         -5.01708       -3.41821       -0.57036
H         -5.54815       -1.33925       -1.85397
H         -4.12227        0.58238       -1.68295
C         -4.11956        2.57704       -0.70707
H         -4.38893        2.46527       -1.75707
H         -4.80463        1.97925       -0.11010
H         -4.24417        3.62540       -0.44803
C          0.25566        1.34259        2.59956
H          1.02579        0.85902        3.19896
H          0.42077        2.41756        2.58594
H         -0.71378        1.14548        3.05737
H          0.20257       -0.28684        1.27341
O          3.59727        0.63664       -0.23755
C          4.73863       -0.17765       -0.70477
C          5.33351       -0.95524        0.46309
H          6.25112       -1.44483        0.13627
H          4.64430       -1.71105        0.82696
H          5.58231       -0.27771        1.27985
C          4.29931       -1.08346       -1.84912
H          5.17764       -1.56073       -2.28374
H          3.61861       -1.85634       -1.50571
H          3.81034       -0.49821       -2.62791
C          5.71242        0.88332       -1.20032
H          6.61801        0.40641       -1.57302
H          5.98423        1.56092       -0.39192
H          5.26830        1.46463       -2.00742
