47
int1.log	Energy: -741429.7522886
O          1.56712        0.63342        1.33548
C          1.54440        1.01138        0.17908
N          0.49148        1.64536       -0.40116
H          0.61511        1.98846       -1.33899
C         -0.67354        2.07032        0.36008
C         -1.93340        1.49977       -0.21781
N         -3.03746        2.15646       -0.44220
N         -3.98514        1.25892       -0.89858
C         -3.42401        0.08034       -0.94955
N         -2.11509        0.17188       -0.53397
C         -1.18177       -0.90376       -0.51071
C         -0.70625       -1.35196       -1.73739
C          0.16770       -2.42461       -1.80879
C          0.58112       -3.05487       -0.64213
C          0.12265       -2.60348        0.58286
C         -0.76714       -1.52928        0.67380
C         -1.25525       -1.09016        2.00791
O         -2.07430       -0.22629        2.21370
O         -0.68540       -1.78426        3.01572
H         -1.04828       -1.42661        3.83900
H          0.45169       -3.08056        1.49137
H          1.26622       -3.88918       -0.68535
H          0.52837       -2.76061       -2.77066
H         -1.02734       -0.84100       -2.63336
C         -4.08135       -1.18571       -1.35753
H         -3.62339       -1.61234       -2.25042
H         -4.01818       -1.93249       -0.56486
H         -5.12762       -0.97970       -1.56517
C         -0.74448        3.58916        0.48534
H          0.16170        3.95023        0.96888
H         -0.83549        4.05642       -0.49477
H         -1.60912        3.88263        1.07537
H         -0.53998        1.63867        1.35068
O          2.53018        0.85563       -0.72759
C          3.82854        0.27288       -0.35138
C          4.49187        1.13163        0.71972
H          5.50544        0.77056        0.89492
H          3.93953        1.09062        1.65371
H          4.55288        2.16826        0.38772
C          3.64798       -1.17361        0.09362
H          4.62750       -1.62389        0.25695
H          3.07406       -1.23371        1.01309
H          3.13344       -1.74270       -0.67909
C          4.61143        0.33871       -1.65658
H          5.60919       -0.07383       -1.51129
H          4.70800        1.36986       -1.99459
H          4.10795       -0.23605       -2.43330
