47
int2.log	Energy: -741431.4114551
O          1.60438        0.78524        1.61675
C          1.45634        1.11455        0.45543
N          0.37169        1.77568       -0.02722
H          0.34273        1.97096       -1.01345
C         -0.79249        2.09909        0.78650
C         -2.01256        1.49773        0.15665
N         -2.98124        2.13177       -0.44441
N         -3.86699        1.18807       -0.93422
C         -3.40453        0.00573       -0.62195
N         -2.23005        0.14214        0.07606
C         -1.42388       -0.89738        0.62018
C         -1.60149       -1.19134        1.96576
C         -0.86118       -2.19276        2.57575
C          0.05836       -2.91879        1.83139
C          0.23972       -2.62673        0.49128
C         -0.48195       -1.61001       -0.13812
C         -0.14119       -1.37007       -1.56883
O          0.71826       -1.98361       -2.15813
O         -0.86487       -0.40751       -2.17128
H         -0.55021       -0.35160       -3.08610
H          0.95545       -3.17568       -0.09975
H          0.63720       -3.70495        2.29400
H         -1.00650       -2.40433        3.62544
H         -2.32910       -0.62253        2.52638
C         -4.01949       -1.30069       -0.95660
H         -3.37763       -1.87517       -1.62591
H         -4.18955       -1.90115       -0.06214
H         -4.97093       -1.12403       -1.45034
C         -0.93941        3.60220        0.99923
H         -0.03629        3.98643        1.46981
H         -1.09315        4.11357        0.05063
H         -1.79438        3.81753        1.63787
H         -0.61200        1.61429        1.74551
O          2.31672        0.88372       -0.55732
C          3.63561        0.27129       -0.32512
C          4.45043        1.13770        0.62842
H          5.46859        0.75197        0.68344
H          4.02132        1.13619        1.62604
H          4.49487        2.16363        0.26214
C          3.46733       -1.15561        0.18237
H          4.44834       -1.62417        0.26633
H          2.98586       -1.17113        1.15543
H          2.87143       -1.73232       -0.52290
C          4.24914        0.27354       -1.71940
H          5.24279       -0.17199       -1.68701
H          4.33733        1.29131       -2.09830
H          3.63149       -0.30392       -2.40611
