44
crest_best_TS1.log	Energy: -716717.6024110
O         -3.95350        1.27491        0.04256
C         -2.89006        0.85629       -0.37149
N         -2.36638        1.26767       -1.57106
H         -3.00802        1.86012       -2.07201
C         -1.31475        0.67203       -2.40516
C         -0.54781       -0.47425       -1.83253
N         -0.86409       -1.66850       -2.23226
N          0.02698       -2.55302       -1.69292
C          0.89265       -1.88799       -0.97696
N          0.58361       -0.52145       -0.99844
C          1.21590        0.62635       -0.40587
C          0.52105        1.84044       -0.45474
C          1.10453        3.05445       -0.13488
C          2.43121        3.11143        0.25185
C          3.10496        1.91708        0.41834
C          2.51091        0.67537        0.15882
C          3.27666       -0.40390        0.84642
O          2.89338       -0.94680        1.85239
O          4.50619       -0.59465        0.33068
H          4.97864       -1.20524        0.91830
H          4.11053        1.92022        0.81344
H          2.91714        4.05108        0.46953
H          0.50570        3.95201       -0.19804
H         -0.51459        1.86092       -0.72190
C          2.01480       -2.63628       -0.35824
H          2.98583       -2.26309       -0.67607
H          1.97370       -2.63981        0.72555
H          1.91504       -3.65614       -0.71942
H         -1.77986        0.25102       -3.29470
H         -0.63539        1.46186       -2.72855
O         -2.06371        0.02012        0.26525
C         -2.38010       -0.53483        1.59484
C         -1.17684       -1.42489        1.87826
H         -0.25747       -0.84143        1.90314
H         -1.30061       -1.90922        2.84603
H         -1.08342       -2.19516        1.11424
C         -2.46818        0.59717        2.61087
H         -2.57680        0.17536        3.61020
H         -1.55457        1.19168        2.59051
H         -3.31759        1.24250        2.40774
C         -3.65765       -1.36119        1.51856
H         -3.80985       -1.87353        2.46868
H         -3.57069       -2.11360        0.73494
H         -4.52095       -0.73471        1.31552
