44
int2.log	Energy: -716742.5263466
O         -3.98985       -1.26692       -1.38813
C         -2.89823       -0.75353       -1.25735
N         -1.78454       -1.17504       -1.93096
H         -1.89603       -2.08252       -2.34963
C         -0.44420       -0.75529       -1.58630
C         -0.02285       -1.16404       -0.20814
N         -0.46789       -2.17882        0.47586
N          0.21125       -2.20301        1.68405
C          1.05271       -1.20447        1.69115
N          0.93834       -0.50124        0.51289
C          1.68713        0.64371        0.12109
C          1.09719        1.89031        0.28969
C          1.78842        3.04641       -0.04251
C          3.08735        2.96026       -0.52842
C          3.68176        1.71962       -0.68754
C          2.99158        0.54457       -0.38283
C          3.72715       -0.73050       -0.62247
O          4.92939       -0.79724       -0.71559
O          2.93124       -1.80713       -0.75936
H          3.50494       -2.57444       -0.90550
H          4.69190        1.63351       -1.05846
H          3.63565        3.85629       -0.78123
H          1.31589        4.00970        0.08741
H          0.09388        1.93791        0.68502
C          1.99747       -0.84837        2.77743
H          3.03457       -0.93692        2.44967
H          1.84557        0.17684        3.11741
H          1.83869       -1.52472        3.61255
H          0.23936       -1.18822       -2.31768
H         -0.36218        0.32600       -1.68061
O         -2.60417        0.30938       -0.48489
C         -3.60034        0.87904        0.43549
C         -2.80558        1.95900        1.15902
H         -2.40158        2.67906        0.44755
H         -3.45101        2.48902        1.85823
H         -1.98386        1.51462        1.72020
C         -4.74883        1.49270       -0.35675
H         -5.42311        2.01015        0.32615
H         -4.36713        2.21886       -1.07499
H         -5.30647        0.72825       -0.88910
C         -4.06930       -0.18660        1.42010
H         -4.67840        0.28308        2.19279
H         -3.21229       -0.66112        1.89746
H         -4.65984       -0.95007        0.92361
