63
DBD-2-571-R-Alpha.log	Energy: -1037784.0208181
C         -0.53249        2.58730       -0.57795
N          1.90732        2.61531       -0.22357
O         -1.38928        2.22530       -1.38946
C          0.82276        3.14533       -1.05055
N          3.25164       -1.19770       -0.55262
O          1.12894        0.52902       -0.47810
C          1.05600        2.90010       -2.52558
N          2.29295       -2.62621       -1.92096
O         -1.18298       -3.65601        0.26359
C          1.98690        1.30306       -0.00437
N          3.15361       -1.83215       -2.64624
O         -2.61694        0.31504        2.59064
C          3.08584        0.78887        0.85546
N          0.24737       -1.92978        0.43044
C          3.53903        1.50021        1.95937
N         -1.79826       -0.04931        0.53105
C          4.46820        0.94786        2.82202
N         -0.72245        2.58528        0.73788
C          4.93445       -0.35161        2.61604
C          4.51443       -1.07017        1.50493
C          3.60650       -0.49117        0.62506
C          2.34307       -2.23940       -0.69393
C          3.70061       -0.94218       -1.82993
C          4.65818        0.11170       -2.15552
C          1.46517       -2.73293        0.38466
C         -0.95714       -2.44555        0.34715
C         -2.14522       -1.45589        0.45011
C         -3.06705       -1.66329       -0.72230
C         -4.36684       -0.89062       -0.49388
C         -5.37293       -1.51948        0.22863
C         -6.58096       -0.87006        0.45005
C         -6.78357        0.41112       -0.05169
C         -5.77783        1.03849       -0.77609
C         -4.57020        0.39019       -0.99672
C         -2.14631        0.73609        1.55701
C         -1.95846        2.18707        1.34536
H          4.93435        0.02522       -3.20342
H          5.56211        0.04097       -1.54779
H          4.23394        1.10636       -1.99812
H          1.16755       -3.75546        0.16871
H          1.96606       -2.70964        1.35477
H         -2.65302       -1.70819        1.37910
H         -3.26695       -2.72637       -0.82880
H         -2.57677       -1.32567       -1.63850
H         -5.21320       -2.51904        0.61101
H         -7.36556       -1.36167        1.00957
H         -7.72578        0.91515        0.11634
H         -5.93626        2.03215       -1.17405
H         -3.78951        0.87659       -1.56656
H         -2.77788        2.54164        0.71574
H         -2.05049        2.66941        2.31475
H          2.68241        3.21075        0.01323
H          0.79507        4.22042       -0.85772
H          1.98682        3.37254       -2.83960
H          0.23613        3.31540       -3.10612
H          1.10532        1.83367       -2.73048
H          0.36227       -0.92863        0.36995
H          3.13944        2.48333        2.16891
H         -1.57961        0.40965       -0.34282
H          4.80575        1.50982        3.68115
H          0.05313        2.80663        1.33679
H          5.63867       -0.78910        3.30924
H          4.88988       -2.06085        1.29542
