63
DBD-2-571-S.log	Energy: -1037790.9999784
C          1.02556        3.13389       -0.40431
N          2.75848        1.47195       -0.52882
O          0.65471        2.89403       -1.54668
C          2.43308        2.76264        0.05793
N          2.30574       -1.95749        0.84189
O          3.96507        0.71312        1.23812
C          3.41574        3.83550       -0.37792
N          1.81287       -2.10458        2.97633
O         -2.02735       -0.58612       -1.68724
C          3.49527        0.55947        0.11547
N          0.63953       -1.83521        2.26101
O         -2.39436        2.90786        1.84215
C          3.71969       -0.69069       -0.69852
N         -1.09586       -0.67214        0.36387
C          4.51026       -0.64910       -1.83887
N         -2.25367        2.13265       -0.26619
C          4.65459       -1.77472       -2.63834
N          0.29498        3.78054        0.51665
C          3.99587       -2.94389       -2.31126
C          3.21251       -3.00759       -1.17101
C          3.09106       -1.88797       -0.36423
C          0.96380       -1.74924        1.00177
C          2.78663       -2.17560        2.11262
C          4.19588       -2.46174        2.43146
C         -0.00164       -1.51903       -0.11163
C         -1.99726       -0.22361       -0.51889
C         -2.93516        0.86920       -0.02135
C         -4.29538        0.84542       -0.73642
C         -5.06657       -0.42547       -0.49936
C         -5.74509       -0.63038        0.69136
C         -6.43188       -1.80489        0.93155
C         -6.45445       -2.79989       -0.02695
C         -5.80346       -2.60227       -1.22654
C         -5.11076       -1.42857       -1.46087
C         -1.98860        3.02630        0.68822
C         -1.08556        4.17158        0.28049
H          2.47224        2.63655        1.13892
H          2.35623        1.27574       -1.43251
H          3.17024        4.79595        0.07590
H          3.39241        3.94959       -1.46127
H          4.42289        3.55768       -0.07129
H          5.00356        0.27487       -2.10818
H         -1.12269       -0.43844        1.34368
H          5.27517       -1.72942       -3.52221
H         -1.80862        2.24483       -1.16606
H          4.09333       -3.81636       -2.94211
H          0.61625        3.77953        1.47030
H          2.69978       -3.91728       -0.89311
H          4.82421       -1.60358        2.18928
H          4.56586       -3.32409        1.87422
H          4.27232       -2.66838        3.49517
H          0.48509       -1.03638       -0.96015
H         -0.39723       -2.46838       -0.48114
H         -3.07939        0.80277        1.05505
H         -4.86011        1.70594       -0.37604
H         -4.11973        0.98006       -1.80269
H         -5.73570        0.14550        1.44801
H         -6.94934       -1.94256        1.87153
H         -6.98977       -3.72157        0.15813
H         -5.82292       -3.37165       -1.98718
H         -4.57504       -1.29067       -2.38948
H         -1.18768        4.42755       -0.77162
H         -1.32495        5.03480        0.89448
