41
crest_best_TS1.log	Energy: -692054.1698396
H          3.17524        2.73935        0.04204
C          2.12379        2.90686       -0.09118
N          1.56703        4.07714       -0.17557
N          0.21544        3.86941       -0.34102
C         -0.00519        2.58050       -0.35507
N          1.19236        1.89729       -0.19563
C          1.49333        0.50301       -0.16492
C          2.81706        0.10000       -0.01450
C          3.14799       -1.25014        0.01455
C          2.15913       -2.22295       -0.10959
C          0.84349       -1.81886       -0.25993
C          0.50441       -0.47275       -0.28633
H         -0.53099       -0.21615       -0.39356
H          0.05994       -2.55623       -0.35673
H          2.41968       -3.26905       -0.08678
C          4.58383       -1.59462        0.18067
O          5.47520       -0.78578        0.28918
O          4.80542       -2.92487        0.19933
H          5.75877       -3.05370        0.31084
H          3.62492        0.80459        0.08430
C         -1.39322        2.04908       -0.49047
N         -1.88631        1.50742        0.76855
C         -2.76288        0.46942        0.91283
O         -3.31598        0.21294        1.96241
O         -2.88201       -0.22059       -0.23780
C         -3.73366       -1.42157       -0.33126
C         -3.24269       -2.49011        0.63843
H         -3.79452       -3.41338        0.46197
H         -3.38853       -2.18439        1.66953
H         -2.18413       -2.69280        0.47700
C         -5.18833       -1.03936       -0.08700
H         -5.82431       -1.90386       -0.27782
H         -5.34089       -0.71189        0.93698
H         -5.48773       -0.24012       -0.76500
C         -3.52170       -1.86221       -1.77366
H         -3.83173       -1.07867       -2.46405
H         -4.10973       -2.75607       -1.97749
H         -2.47175       -2.09030       -1.95584
H         -1.84276        2.11150        1.57320
H         -1.46725        1.28458       -1.25584
H         -1.99714        2.89655       -0.81743
