41
int1.log	Energy: -692059.6865201
H         -4.35153        1.59327        0.21352
C         -4.01313        0.64317       -0.16250
N         -4.75094       -0.28416       -0.70513
N         -3.90991       -1.32659       -1.04573
C         -2.69181       -0.98744       -0.71069
N         -2.69829        0.26233       -0.13938
C         -1.59796        1.00100        0.38379
C         -0.60397        1.45158       -0.46712
C          0.46755        2.17341        0.05295
C          0.53126        2.44483        1.41889
C         -0.47282        1.98966        2.26158
C         -1.53764        1.26289        1.74893
H         -2.31516        0.88626        2.39781
H         -0.42165        2.19091        3.32161
H          1.36480        3.00300        1.81508
C          1.51742        2.62684       -0.89206
O          1.50825        2.41129       -2.08159
O          2.51371        3.30482       -0.28651
H          3.15110        3.55106       -0.97287
H         -0.64969        1.25686       -1.52764
C         -1.48196       -1.84657       -0.85964
N         -0.87085       -2.12648        0.42808
C          0.45289       -2.04529        0.74660
O          0.88296       -2.36751        1.83758
O          1.17430       -1.56648       -0.28087
C          2.64555       -1.48897       -0.21601
C          3.07638       -0.52115        0.87983
H          4.15870       -0.39622        0.84019
H          2.80058       -0.89374        1.86139
H          2.61734        0.45398        0.73158
C          3.22550       -2.88407       -0.01290
H          4.31100       -2.83720       -0.10147
H          2.97077       -3.27808        0.96639
H          2.85131       -3.56336       -0.77902
C          3.00842       -0.94952       -1.59335
H          2.68425       -1.64023       -2.37119
H          4.08861       -0.82868       -1.66854
H          2.53720        0.01533       -1.77116
H         -1.44087       -2.54033        1.14642
H         -0.73381       -1.36720       -1.48355
H         -1.80086       -2.76048       -1.36204
