41
int2.log	Energy: -692058.9735375
H          4.13673        1.80414        0.34128
C          3.91291        0.77159        0.13608
N          4.76039       -0.14940       -0.23056
N          4.04618       -1.32109       -0.38924
C          2.79294       -1.06922       -0.10972
N          2.65059        0.25285        0.23166
C          1.45684        0.93393        0.61866
C          0.65296        1.50989       -0.34986
C         -0.51521        2.16313        0.03081
C         -0.86466        2.23978        1.37895
C         -0.04941        1.66123        2.34056
C          1.11326        1.00221        1.96361
H          1.75471        0.54080        2.70073
H         -0.31929        1.71991        3.38501
H         -1.77187        2.74741        1.66708
C         -1.35876        2.75045       -1.04155
O         -1.05463        2.78624       -2.20896
O         -2.52494        3.24642       -0.57631
H         -3.00996        3.59721       -1.33765
H          0.91454        1.44566       -1.39471
C          1.67447       -2.05375       -0.16385
N          0.72925       -1.75781       -1.22760
C         -0.62476       -1.63590       -1.11383
O         -1.35638       -1.53953       -2.07950
O         -1.00908       -1.61735        0.17518
C         -2.43272       -1.69530        0.54970
C         -3.19242       -0.47302        0.04791
H         -4.21924       -0.52024        0.41168
H         -3.20384       -0.43498       -1.03651
H         -2.74055        0.43853        0.43173
C         -3.02524       -2.99787        0.02496
H         -4.03677       -3.11641        0.41338
H         -3.06688       -3.00043       -1.06053
H         -2.42972       -3.84695        0.36107
C         -2.37051       -1.69936        2.07159
H         -1.80597       -2.55908        2.43134
H         -3.37780       -1.74925        2.48337
H         -1.89094       -0.79080        2.43340
H          1.05675       -1.80120       -2.17815
H          1.12511       -2.06118        0.77293
H          2.12233       -3.03795       -0.30261
