41
int3.log	Energy: -692058.7563314
H          0.13244        2.54536        2.41174
C          0.47393        2.45610        1.39500
N          1.39936        3.17072        0.82057
N          1.51016        2.72307       -0.48329
C          0.63856        1.76534       -0.65691
N         -0.05558        1.55230        0.51105
C         -1.08695        0.60621        0.76960
C         -2.25701        0.64678        0.02989
C         -3.24991       -0.30189        0.26077
C         -3.07390       -1.27138        1.24786
C         -1.90341       -1.29241        1.99265
C         -0.90338       -0.36079        1.75259
H          0.02429       -0.39260        2.30444
H         -1.75869       -2.04849        2.75034
H         -3.84665       -2.00313        1.42344
C         -4.47632       -0.23216       -0.57454
O         -4.64678        0.55882       -1.47221
O         -5.39818       -1.15473       -0.23334
H         -6.15352       -1.03929       -0.82848
H         -2.41141        1.40486       -0.72296
C          0.47767        0.96281       -1.91164
N          0.40012       -0.47210       -1.68784
C          1.32199       -1.19332       -0.98178
O          1.12147       -2.32444       -0.58457
O          2.43826       -0.46935       -0.81684
C          3.52876       -0.90341        0.07128
C          2.99466       -1.05427        1.49130
H          3.82014       -1.28120        2.16564
H          2.26400       -1.85610        1.55337
H          2.53843       -0.11983        1.81920
C          4.15521       -2.18813       -0.45664
H          5.04234       -2.42354        0.13182
H          3.45952       -3.01950       -0.39585
H          4.46093       -2.05720       -1.49464
C          4.50682        0.26070       -0.01512
H          4.86036        0.38633       -1.03779
H          5.36528        0.07001        0.62814
H          4.02745        1.18637        0.29916
H         -0.49475       -0.92116       -1.77037
H          1.32199        1.21572       -2.54933
H         -0.42905        1.25195       -2.44153
