41
int4.log	Energy: -692057.5384234
H          0.62454        3.09862       -2.12385
C         -0.02183        2.85936       -1.29735
N         -1.24006        3.28133       -1.11924
N         -1.70057        2.71514        0.05563
C         -0.75096        1.96069        0.53986
N          0.35126        2.01447       -0.28195
C          1.60764        1.35832       -0.15809
C          1.66036       -0.01776       -0.00277
C          2.89558       -0.65139        0.10197
C          4.07351        0.09208        0.03499
C          4.00913        1.46857       -0.12936
C          2.77974        2.10750       -0.21806
H          2.72306        3.18130       -0.32517
H          4.91843        2.04996       -0.17870
H          5.02738       -0.40579        0.11078
C          2.89707       -2.12757        0.26730
O          1.90167       -2.81134        0.32028
O          4.13870       -2.64614        0.35375
H          4.04217       -3.60420        0.45791
H          0.75610       -0.60259        0.02825
C         -0.83404        1.18012        1.81921
N         -2.12644        0.56535        2.03583
C         -2.71742       -0.30877        1.16588
O         -3.87851       -0.64863        1.26052
O         -1.83436       -0.73563        0.24238
C         -2.27706       -1.58324       -0.88509
C         -2.74893       -2.93410       -0.36106
H         -2.95573       -3.59354       -1.20444
H         -3.65071       -2.83078        0.23420
H         -1.96926       -3.39341        0.24661
C         -3.34782       -0.85064       -1.68572
H         -3.56248       -1.41471       -2.59355
H         -4.26490       -0.74205       -1.11556
H         -2.99176        0.13875       -1.97287
C         -1.01037       -1.74490       -1.71480
H         -0.64400       -0.77409       -2.04818
H         -1.22942       -2.34727       -2.59571
H         -0.22940       -2.24428       -1.14342
H         -2.78760        1.05866        2.61014
H         -0.65080        1.84957        2.65955
H         -0.05240        0.42618        1.84517
