41
crest_best_TS2.log	Energy: -692040.0953293
H          3.74814        2.56974       -0.89697
C          2.79047        2.50498       -0.42484
N          2.08846        3.53985       -0.09109
N          0.97477        3.06708        0.54951
C          1.02036        1.75856        0.58490
N          2.18625        1.31399       -0.05373
C          2.85204        0.05022       -0.30138
C          4.01457        0.09100       -1.08510
C          4.80876       -1.02402       -1.28479
C          4.47581       -2.23539       -0.70057
C          3.30724       -2.30788        0.03186
C          2.47903       -1.19817        0.21450
C          1.18310       -1.53639        0.87053
O          1.05832       -1.78917        2.04634
O          0.20493       -1.57698       -0.02792
H         -0.68511       -1.59161        0.42302
H          2.99513       -3.24716        0.46611
H          5.09735       -3.10898       -0.83154
H          5.69287       -0.93187       -1.89924
H          4.32102        0.99781       -1.57218
C         -0.16431        1.11482        1.25380
N         -1.31866        1.12156        0.36477
C         -2.27480        0.16605        0.35395
O         -2.15149       -0.94814        0.86249
O         -3.35603        0.59693       -0.29940
C         -4.50580       -0.29137       -0.58259
C         -4.05222       -1.47793       -1.42433
H         -3.50974       -1.13255       -2.30437
H         -4.92904       -2.03069       -1.76147
H         -3.41664       -2.15033       -0.85625
C         -5.42786        0.61844       -1.38303
H         -6.33547        0.07875       -1.65010
H         -4.93953        0.95127       -2.29810
H         -5.70453        1.49414       -0.79732
C         -5.16267       -0.71588        0.72492
H         -6.08047       -1.26068        0.50320
H         -4.50746       -1.35707        1.30652
H         -5.42273        0.16017        1.31892
H         -1.56935        2.01259       -0.03331
H         -0.00893        0.12715        1.64809
H         -0.36939        1.75857        2.10990
