41
crest_best_TS1.log	Energy: -692044.6194969
H         -3.82877        1.24771        0.73803
C         -2.92606        1.74822        0.46434
N         -2.73133        3.02165        0.61553
N         -1.47511        3.29799        0.12742
C         -0.94347        2.18815       -0.30876
N         -1.84148        1.13011       -0.12571
C         -1.67882       -0.26951       -0.38364
C         -0.49672       -0.71261       -0.97252
C         -0.21540       -2.05911       -1.13776
C         -1.11076       -3.02002       -0.70207
C         -2.30674       -2.60130       -0.14765
C         -2.62737       -1.24731       -0.01076
C         -4.05033       -1.01509        0.37110
O         -4.84499       -0.37126       -0.27064
O         -4.39185       -1.68411        1.48896
H         -5.34619       -1.56682        1.61729
H         -3.03775       -3.32998        0.16891
H         -0.89553       -4.07357       -0.80385
H          0.72047       -2.33786       -1.59993
H          0.24263       -0.02208       -1.31727
C          0.46096        2.22311       -0.82634
N          1.40227        1.60000        0.08477
C          2.39447        0.77049       -0.33676
O          2.51174        0.37757       -1.48388
O          3.18324        0.44598        0.70109
C          4.27529       -0.53377        0.55478
C          5.32543       -0.00244       -0.41382
H          4.93051        0.06760       -1.42282
H          6.18376       -0.67460       -0.41784
H          5.66674        0.98289       -0.09633
C          3.70871       -1.88105        0.11938
H          4.49514       -2.63426        0.16866
H          3.32933       -1.83826       -0.89705
H          2.90273       -2.18510        0.78741
C          4.83557       -0.61642        1.96860
H          5.67045       -1.31557        1.99488
H          5.19020        0.35980        2.29712
H          4.07154       -0.96128        2.66443
H          1.43095        1.91748        1.03887
H          0.57637        1.75865       -1.80078
H          0.68327        3.28340       -0.94677
