41
int4.log	Energy: -692057.1983760
H          2.68197        2.58690       -1.67338
C          1.84659        2.37025       -1.03055
N          0.72501        3.02594       -0.96969
N         -0.06636        2.38687       -0.03214
C          0.60118        1.36428        0.43057
N          1.83780        1.30577       -0.16429
C          2.90751        0.37551       -0.00822
C          4.14091        0.88952        0.38080
C          5.23718        0.05301        0.52711
C          5.09993       -1.31354        0.31561
C          3.86687       -1.82995       -0.04547
C          2.76183       -1.00013       -0.23620
C          1.47050       -1.65841       -0.60033
O          1.18574       -2.77092       -0.21935
O          0.67009       -0.89414       -1.34431
H         -0.26762       -1.13574       -1.15602
H          3.73370       -2.89099       -0.19596
H          5.94713       -1.97272        0.43896
H          6.19092        0.46812        0.82061
H          4.22717        1.94861        0.57668
C          0.08179        0.43113        1.48762
N         -1.36119        0.45033        1.57425
C         -2.13933       -0.15832        0.63763
O         -1.73098       -0.95876       -0.19349
O         -3.41210        0.21237        0.79281
C         -4.48037       -0.27072       -0.10781
C         -4.18722        0.16526       -1.53846
H         -3.99830        1.23781       -1.57498
H         -5.05506       -0.05087       -2.16161
H         -3.32774       -0.35778       -1.94622
C         -5.71000        0.44644        0.43337
H         -6.58555        0.16756       -0.15150
H         -5.58114        1.52636        0.37277
H         -5.88592        0.17383        1.47333
C         -4.62970       -1.78114        0.02826
H         -5.50327       -2.10609       -0.53721
H         -3.75527       -2.30136       -0.35055
H         -4.78049       -2.05354        1.07288
H         -1.78416        1.23945        2.03388
H          0.40792       -0.58919        1.31198
H          0.48090        0.71963        2.46064
