56
crest_best_TS1                                   Eopt  -1524.599306
O    -1.186163    -1.987470    -2.045786
C    -1.151609    -0.765692    -1.920712
N    -2.130849     0.034936    -2.405250
H    -2.808563    -0.473633    -2.948011
C    -2.540953     1.388622    -2.017415
C    -1.967426     1.868583    -0.731527
N    -1.177743     2.903910    -0.772412
N    -0.579682     3.044662     0.449608
C    -1.002553     2.089795     1.224555
N    -1.967391     1.313920     0.552034
C    -2.701673     0.255299     1.184873
C    -2.771425     0.314450     2.578937
C    -3.184840    -0.755801     3.355717
C    -3.553308    -1.943867     2.751240
C    -3.636030    -1.973337     1.370129
C    -3.290278    -0.878177     0.567927
C    -4.010846    -0.939234    -0.745022
O    -4.845297    -0.114993    -1.030922
O    -3.866975    -2.051799    -1.487734
H    -2.940524    -2.373381    -1.465805
H    -4.059170    -2.838118     0.880647
H    -3.840195    -2.806410     3.334445
H    -3.207970    -0.648700     4.430744
H    -2.500346     1.225122     3.077023
C    -0.329764     1.837114     2.532723
H    -0.842667     2.292729     3.379069
H    -0.219004     0.774297     2.736105
H     0.656143     2.289199     2.458163
H    -2.204907     2.116950    -2.752357
H    -3.627379     1.386262    -2.003324
O    -0.176596    -0.103145    -1.288957
C     0.795827    -0.887599    -0.558732
H     0.548737    -1.937289    -0.671598
H     0.705284    -0.596794     0.486485
C     2.198640    -0.595643    -1.076815
C     3.215947    -1.513821    -0.427423
C     3.266485    -2.896525    -0.424861
C     4.306607    -3.531454     0.253069
C     5.277442    -2.784744     0.916976
C     5.228972    -1.394228     0.916928
C     4.192228    -0.759411     0.242529
C     3.884000     0.661950     0.070820
C     4.532884     1.794766     0.546177
C     4.003259     3.045284     0.241635
C     2.845879     3.159334    -0.523970
C     2.197267     2.024638    -1.008879
C     2.720202     0.779887    -0.709132
H     1.290027     2.125481    -1.585035
H     2.433208     4.135643    -0.734109
H     4.492343     3.937934     0.607571
H     5.430453     1.710557     1.144247
H     5.987256    -0.821046     1.433171
H     6.078327    -3.292709     1.436853
H     4.361633    -4.611285     0.261646
H     2.518376    -3.481722    -0.943819
H     2.189230    -0.736975    -2.161246
