56
int2                                             Eopt  -1524.640149
O     1.090792     3.819159    -0.012375
C     0.147981     3.065705    -0.120580
N    -1.134391     3.397375     0.169995
H    -1.244301     4.272781     0.650189
C    -2.283770     2.534417     0.014694
C    -2.339143     1.416591     1.012733
N    -2.022490     1.481858     2.273208
N    -2.189835     0.219775     2.817256
C    -2.592112    -0.582469     1.869516
N    -2.702251     0.126259     0.686918
C    -3.308972    -0.305438    -0.530782
C    -4.560555     0.213388    -0.847237
C    -5.207929    -0.178968    -2.008286
C    -4.616975    -1.118875    -2.844826
C    -3.383622    -1.655076    -2.515739
C    -2.700902    -1.244551    -1.368889
C    -1.369170    -1.890149    -1.126979
O    -1.149960    -3.026355    -1.460696
O    -0.398105    -1.164188    -0.554328
H    -0.652722    -0.249426    -0.363571
H    -2.919289    -2.400766    -3.143188
H    -5.119923    -1.438705    -3.745984
H    -6.176484     0.235518    -2.248633
H    -5.024418     0.912857    -0.166458
C    -2.866966    -2.032754     1.998372
H    -2.916800    -2.285795     3.053592
H    -3.807849    -2.304574     1.519968
H    -2.072485    -2.624162     1.540886
H    -3.171314     3.159022     0.108800
H    -2.299860     2.116553    -0.990747
O     0.244328     1.785181    -0.569234
C     1.550448     1.386698    -1.054806
H     1.918647     2.159431    -1.724800
H     1.359515     0.475630    -1.613715
C     2.577747     1.116824     0.051435
C     3.810204     0.505764    -0.586269
C     4.663045     1.044973    -1.532968
C     5.719706     0.268526    -2.008560
C     5.909099    -1.029985    -1.541415
C     5.052880    -1.575694    -0.589862
C     4.000849    -0.802999    -0.112458
C     2.972438    -1.091060     0.889273
C     2.748557    -2.223959     1.661359
C     1.708433    -2.209241     2.585246
C     0.913647    -1.076768     2.742609
C     1.134192     0.059337     1.965091
C     2.153059     0.041888     1.029579
H     0.510842     0.930593     2.102490
H     0.112769    -1.069101     3.467411
H     1.520954    -3.083052     3.194620
H     3.372804    -3.100872     1.553597
H     5.208595    -2.583254    -0.228518
H     6.733391    -1.618724    -1.920539
H     6.398892     0.678482    -2.743396
H     4.524124     2.055188    -1.895440
H     2.798237     2.058395     0.553357
